Mass spectrum: GABA; LC-ESI-QTOF; MS2; MERGED; [M-H]-
Name: GABA
Name: 4-Aminobutanoate
Name: 4-Aminobutanoic acid
Name: 4-Aminobutylate
Name: 4-Aminobutyrate
Name: 4-Aminobutyric acid
Name: gamma-Aminobutyric acid
Formula: C4H9NO2
Exact mass: 103.06333
SMILES: NCCCC(O)=O
InChI: InChI=1S/C4H9NO2/c5-3-1-2-4(6)7/h1-3,5H2,(H,6,7)
Instrument: Qstar, Applied Biosystems
Instrument type: LC-ESI-QTOF
Ms type: MS2
Ion mode: NEGATIVE
Precursor m/z: 102
Precursor type: [M-H]-
m/z	relative intensity
N/A	N/A
